
**** 03/15/25 19:45:11 ******* PSpice Lite (March 2016) ******* ID# 10813 ****

 ** Profile: "SCHEMATIC1-Tensao1"  [ C:\Users\silva\Desktop\1s2025\EE533\Simulacao1\Simulacao01-PSpiceFiles\SCHEMATIC1\Tensao1.sim ] 


 ****     CIRCUIT DESCRIPTION


******************************************************************************




** Creating circuit file "Tensao1.cir" 
** WARNING: THIS AUTOMATICALLY GENERATED FILE MAY BE OVERWRITTEN BY SUBSEQUENT SIMULATIONS

*Libraries: 
* Profile Libraries :
* Local Libraries :
* From [PSPICE NETLIST] section of C:\Users\silva\AppData\Roaming\SPB_Data\cdssetup\OrCAD_PSpice\17.2.0\PSpice.ini file:
.lib "nomd.lib" 

*Analysis directives: 
.TRAN  0 100ms 0 100u 
.OPTIONS ADVCONV
.PROBE64 V(alias(*)) I(alias(*)) W(alias(*)) D(alias(*)) NOISE(alias(*)) 
.INC "..\SCHEMATIC1.net" 



**** INCLUDING SCHEMATIC1.net ****
* source SIMULACAO01
D_D1         N14395 N14403 D1N4003 
R_R1         0 N14403  42k TC=0,0 
V_V1         N14395 0  
+SIN 0 100V 60 0 0 0
C_C1         0 N14403  15,874u  TC=0,0 
--------------------------$
ERROR(ORPSIM-16015): Unknown parameter.

**** RESUMING Tensao1.cir ****
.END
