
**** 03/17/25 16:28:05 ******* PSpice Lite (March 2016) ******* ID# 10813 ****

 ** Profile: "SCHEMATIC1-Tensao1"  [ C:\Users\silva\Desktop\1s2025\EE533\Simulacao1\simulacao01-pspicefiles\schematic1\tensao1.sim ] 


 ****     CIRCUIT DESCRIPTION


******************************************************************************




** Creating circuit file "Tensao1.cir" 
** WARNING: THIS AUTOMATICALLY GENERATED FILE MAY BE OVERWRITTEN BY SUBSEQUENT SIMULATIONS

*Libraries: 
* Profile Libraries :
* Local Libraries :
* From [PSPICE NETLIST] section of C:\Users\silva\AppData\Roaming\SPB_Data\cdssetup\OrCAD_PSpice\17.2.0\PSpice.ini file:
.lib "nomd.lib" 

*Analysis directives: 
.TRAN  0 100ms 0 100u 
.OPTIONS ADVCONV
.PROBE64 V(alias(*)) I(alias(*)) W(alias(*)) D(alias(*)) NOISE(alias(*)) 
.INC "..\SCHEMATIC1.net" 



**** INCLUDING SCHEMATIC1.net ****
* source SIMULACAO01
D_D1         N14395 N14403 D1N4003 
R_R1         0 N14403  42k TC=0,0 
V_V1         N14395 0  
+SIN 0 100V 60 0 0 0
C_C1         N14403 0  15.774u  TC=0,0 

**** RESUMING Tensao1.cir ****
.END

**** 03/17/25 16:28:05 ******* PSpice Lite (March 2016) ******* ID# 10813 ****

 ** Profile: "SCHEMATIC1-Tensao1"  [ C:\Users\silva\Desktop\1s2025\EE533\Simulacao1\simulacao01-pspicefiles\schematic1\tensao1.sim ] 


 ****     Diode MODEL PARAMETERS


******************************************************************************




               D1N4003         D1N4001         
          IS   14.110000E-09   14.110000E-09 
           N    1.984           1.984        
         IKF   94.81           94.81         
          BV  300              75            
         IBV   10.000000E-06   10.000000E-06 
          RS     .03389          .03389      
          TT    5.700000E-06    5.700000E-06 
         CJO   25.890000E-12   25.890000E-12 
          VJ     .3245           .3245       
           M     .44             .44         


**** 03/17/25 16:28:05 ******* PSpice Lite (March 2016) ******* ID# 10813 ****

 ** Profile: "SCHEMATIC1-Tensao1"  [ C:\Users\silva\Desktop\1s2025\EE533\Simulacao1\simulacao01-pspicefiles\schematic1\tensao1.sim ] 


 ****     INITIAL TRANSIENT SOLUTION       TEMPERATURE =   27.000 DEG C


******************************************************************************



 NODE   VOLTAGE     NODE   VOLTAGE     NODE   VOLTAGE     NODE   VOLTAGE


(N14395)    0.0000 (N14403) 35.32E-21 




    VOLTAGE SOURCE CURRENTS
    NAME         CURRENT

    V_V1        -8.409E-25

    TOTAL POWER DISSIPATION   0.00E+00  WATTS



          JOB CONCLUDED

**** 03/17/25 16:28:05 ******* PSpice Lite (March 2016) ******* ID# 10813 ****

 ** Profile: "SCHEMATIC1-Tensao1"  [ C:\Users\silva\Desktop\1s2025\EE533\Simulacao1\simulacao01-pspicefiles\schematic1\tensao1.sim ] 


 ****     JOB STATISTICS SUMMARY


******************************************************************************



  Total job time (using Solver 1)   =         .02
